21

N     0.7584     -3.8105    0.5851    
C     0.0000     2.7897     -0.0000   
H     -0.0000    -4.2307    -0.0000   
H     0.9713     -4.4570    1.3788    
H     1.6220     -3.6868    0.0080    
C     0.3236     -2.5215    1.1216    
H     -0.5831    -2.6639    1.7491    
H     1.1272     -2.0904    1.7576    
C     0.0000     -1.5400    0.0000    
H     -0.8232    -1.9305    -0.6351   
H     0.8978     -1.3534    -0.6266   
C     1.2080     0.6974     -0.0000   
C     1.2080     2.0922     -0.0000   
C     0.0000     0.0000     0.0000    
C     -1.2080    0.6974     -0.0000   
C     -1.2080    2.0922     -0.0000   
H     2.1491     0.1540     0.0000    
H     2.1491     2.6356     -0.0000   
H     -2.1491    0.1540     -0.0000   
H     -0.0000    3.8797     -0.0000   
H     -2.1491    2.6356     -0.0000   
